*Heading
** Job name: fundation-3d-ns-uncoupled-dt-1e-3 Model name: Fundation-NS-3D-uncoupled
** Generated by: Abaqus/CAE 2018.HF3
*Preprint, echo=NO, model=NO, history=NO, contact=NO
**
** PARTS
**
*Part, name=fundation
*Node
      1,          30.,           2.,          24.
      2,          30.,           0.,          24.
      3,          50.,           0.,          24.
      4,          50.,           2.,          24.
      5,          30.,           0.,           0.
      6,          50.,           0.,           0.
      7,          50.,           2.,           0.
      8,          30.,           2.,           0.
      9,           0.,           2.,           0.
     10,           0.,           2.,          24.
     11,           0.,           0.,           0.
     12,           0.,           0.,          24.
     13,          80.,           0.,          24.
     14,          80.,           2.,          24.
     15,          80.,           0.,           0.
     16,          80.,           2.,           0.
     17,          32.,           0.,          24.
     18,          34.,           0.,          24.
     19,          36.,           0.,          24.
     20,          38.,           0.,          24.
** ... 1046 like lines cut
*Element, type=C3D8
  1,  74,  86, 352, 253,   1,   2,  17,  34
  2, 253, 352, 353, 254,  34,  17,  18,  33
  3, 254, 353, 354, 255,  33,  18,  19,  32
  4, 255, 354, 355, 256,  32,  19,  20,  31
  5, 256, 355, 356, 257,  31,  20,  21,  30
  6, 257, 356, 357, 258,  30,  21,  22,  29
  7, 258, 357, 358, 259,  29,  22,  23,  28
  8, 259, 358, 359, 260,  28,  23,  24,  27
  9, 260, 359, 360, 261,  27,  24,  25,  26
 10, 261, 360,  85,  53,  26,  25,   3,   4
 11,  73,  87, 361, 262,  74,  86, 352, 253
 12, 262, 361, 362, 263, 253, 352, 353, 254
 13, 263, 362, 363, 264, 254, 353, 354, 255
 14, 264, 363, 364, 265, 255, 354, 355, 256
 15, 265, 364, 365, 266, 256, 355, 356, 257
 16, 266, 365, 366, 267, 257, 356, 357, 258
 17, 267, 366, 367, 268, 258, 357, 358, 259
 18, 268, 367, 368, 269, 259, 358, 359, 260
 19, 269, 368, 369, 270, 260, 359, 360, 261
 20, 270, 369,  84,  54, 261, 360,  85,  53
** ... 460 like lines cut
*Nset, nset=Set-x
   9,  10,  11,  12,  13,  14,  15,  16, 111, 112, 113, 114, 115, 116, 117, 118
 119, 120, 121, 150, 151, 152, 153, 154, 155, 156, 157, 158, 159, 160, 231, 232
 233, 234, 235, 236, 237, 238, 239, 240, 241, 242, 243, 244, 245, 246, 247, 248
 249, 250, 251, 252
*Elset, elset=Set-x
 289, 290, 291, 292, 293, 294, 295, 296, 297, 298, 299, 300, 315, 330, 345, 360
 375, 390, 405, 420, 435, 450, 465, 480
*Nset, nset=Set-y, generate
    1,  1066,     1
*Elset, elset=Set-y, generate
   1,  480,    1
*Nset, nset=Set-z
   5,   6,   7,   8,   9,  11,  15,  16,  35,  36,  37,  38,  39,  40,  41,  42
  43,  44,  45,  46,  47,  48,  49,  50,  51,  52,  97,  98,  99, 100, 101, 102
 103, 104, 105, 106, 107, 108, 109, 110, 136, 137, 138, 139, 140, 141, 142, 143
 144, 145, 146, 147, 148, 149, 203, 204, 205, 206, 207, 208, 209, 210, 211, 212
 213, 214, 215, 216, 217, 218, 219, 220, 221, 222, 223, 224, 225, 226, 227, 228
 229, 230
*Elset, elset=Set-z
 111, 112, 113, 114, 115, 116, 117, 118, 119, 120, 132, 144, 156, 168, 180, 192
 204, 216, 228, 240, 252, 264, 276, 288, 300, 466, 467, 468, 469, 470, 471, 472
 473, 474, 475, 476, 477, 478, 479, 480
*Nset, nset=Set-all, generate
    1,  1066,     1
*Elset, elset=Set-all, generate
   1,  480,    1
** Section: Section-1
*Solid Section, elset=Set-all, material=NorSand
,
*End Part
**  
**
** ASSEMBLY
**
*Assembly, name=Assembly
**  
*Instance, name=fundation-1, part=fundation
*End Instance
**  
*Nset, nset=Set-ground, instance=fundation-1
   1,   2,   3,   4,  10,  12,  13,  14,  17,  18,  19,  20,  21,  22,  23,  24
  25,  26,  27,  28,  29,  30,  31,  32,  33,  34, 122, 123, 124, 125, 126, 127
 128, 129, 130, 131, 132, 133, 134, 135, 161, 162, 163, 164, 165, 166, 167, 168
 169, 170, 171, 172, 173, 174, 175, 176, 177, 178, 179, 180, 181, 182, 183, 184
 185, 186, 187, 188, 189, 190, 191, 192, 193, 194, 195, 196, 197, 198, 199, 200
 201, 202
*Elset, elset=Set-ground, instance=fundation-1
   1,   2,   3,   4,   5,   6,   7,   8,   9,  10, 121, 133, 145, 157, 169, 181
 193, 205, 217, 229, 241, 253, 265, 277, 289, 301, 302, 303, 304, 305, 306, 307
 308, 309, 310, 311, 312, 313, 314, 315
*Nset, nset=Set-load, instance=fundation-1
  1,  2,  3,  4, 17, 18, 19, 20, 21, 22, 23, 24, 25, 26, 27, 28
 29, 30, 31, 32, 33, 34
*Elset, elset=Set-load, instance=fundation-1, generate
  1,  10,   1
*End Assembly
*Amplitude, name=Amp-1
             0.,              0.,              1.,              1.
** 
** MATERIALS
** 
*Material, name=Mohr-Coulomb
*Density
1243.,
*Elastic
 9e+06, 0.15
*Mohr Coulomb
40.,0.
*Mohr Coulomb Hardening
200.,0.
*Material, name=NorSand
*Density
1243.,
*Depvar
      8,
*User Material, constants=13
 0.875,  0.03,  1.27,  0.35,  100.,    4., 3e+07,    1.
  0.15, 1.001,  0.02,  100.,    1.
** 
** BOUNDARY CONDITIONS
** 
** Name: BC-1 Type: Displacement/Rotation
*Boundary
fundation-1.Set-x, 1, 1
** Name: BC-2 Type: Displacement/Rotation
*Boundary
fundation-1.Set-y, 2, 2
** Name: BC-3 Type: Displacement/Rotation
*Boundary
fundation-1.Set-z, 1, 1
fundation-1.Set-z, 2, 2
fundation-1.Set-z, 3, 3
*Initial Conditions, Type=Stress, file=fundation-3d-mc.odb, step=1
** ----------------------------------------------------------------
** 
** STEP: Step-1
** 
*Step, name=Step-1, nlgeom=NO
*Static
1e-06, 0.05, 5e-07, 0.01
*Solution Technique, type=QUASI-NEWTON
** 
** LOADS
** 
** Name: Load-1   Type: Gravity
*Dload
fundation-1.Set-all, GRAV, 9.81, 0., 0., -1.
** 
** OUTPUT REQUESTS
** 
*Restart, write, frequency=0
** 
** FIELD OUTPUT: F-Output-1
** 
*Output, field, time interval=0.001
*Node Output
RT, U
*Element Output, directions=YES
LE, S, SDV
** 
** HISTORY OUTPUT: H-Output-1
** 
*Output, history, variable=PRESELECT
*End Step
** ----------------------------------------------------------------
** 
** STEP: Step-2
** 
*Step, name=Step-2, nlgeom=YES, inc=100000000
*Static
1e-05, 1., 1e-15, 0.001
*Solution Technique, type=QUASI-NEWTON
** 
** BOUNDARY CONDITIONS
** 
** Name: BC-4 Type: Displacement/Rotation
*Boundary, amplitude=Amp-1
Set-load, 1, 1
Set-load, 3, 3, -0.15
** 
** OUTPUT REQUESTS
** 
*Restart, write, frequency=0
** 
** FIELD OUTPUT: F-Output-1
** 
*Output, field, time interval=0.001
*Node Output
RT, U
*Element Output, directions=YES
LE, S, SDV
** 
** HISTORY OUTPUT: H-Output-1
** 
*Output, history, variable=PRESELECT
*End Step
