*Heading
** Job name: 200416_eng Model name: 200416_eng
** Generated by: Abaqus/CAE 2018
*Preprint, echo=NO, model=NO, history=NO, contact=NO
**
** PARTS
**
*Part, name=Domain
*Node
      1, -0.319999993,  0.643012702, 0.0250000004
      2, -0.319999993,  0.643012702,           0.
      3, -0.319999993,  0.593012691,           0.
      4, -0.319999993,  0.433012694,           0.
      5, -0.319999993,  0.593012691, 0.0250000004
      6, -0.319999993,  0.433012694, 0.0250000004
      7, -0.300000012,  0.643012702, 0.0250000004
      8, -0.300000012,  0.643012702,           0.
      9, -0.300000012,  0.593012691,           0.
     10, -0.300000012,  0.593012691, 0.0250000004
     11, -0.300000012,  0.433012694,           0.
     12, -0.300000012,  0.433012694, 0.0250000004
     13, -0.0700000003,           0.,           0.
     14, -0.0500000007, -1.17028609e-12,           0.
     15, -0.0500000007,           0., 0.0250000004
     16, -0.0700000003,           0., 0.0250000004
     17,           0.,  0.433012694,           0.
     18,           0.,           0.,           0.
     19,           0.,  0.433012694, 0.0250000004
     20,           0.,           0., 0.0250000004
** ... 4396 like lines cut
*Element, type=EC3D8R
  1,   94,  549, 2229,  523,    1,   25,  423,   46
  2,  549,  550, 2230, 2229,   25,   26,  424,  423
  3,  550,  551, 2231, 2230,   26,   27,  425,  424
  4,  551,  552, 2232, 2231,   27,   28,  426,  425
  5,  552,   96,  536, 2232,   28,    2,   29,  426
  6,  523, 2229, 2233,  524,   46,  423,  427,   45
  7, 2229, 2230, 2234, 2233,  423,  424,  428,  427
  8, 2230, 2231, 2235, 2234,  424,  425,  429,  428
  9, 2231, 2232, 2236, 2235,  425,  426,  430,  429
 10, 2232,  536,  537, 2236,  426,   29,   30,  430
 11,  524, 2233, 2237,  525,   45,  427,  431,    5
 12, 2233, 2234, 2238, 2237,  427,  428,  432,  431
 13, 2234, 2235, 2239, 2238,  428,  429,  433,  432
 14, 2235, 2236, 2240, 2239,  429,  430,  434,  433
 15, 2236,  537,  538, 2240,  430,   30,    3,  434
 16,  525, 2237, 2241,  526,    5,  431,  435,   56
 17, 2237, 2238, 2242, 2241,  431,  432,  436,  435
 18, 2238, 2239, 2243, 2242,  432,  433,  437,  436
 19, 2239, 2240, 2244, 2243,  433,  434,  438,  437
 20, 2240,  538,  539, 2244,  434,    3,   31,  438
** ... 3355 like lines cut
*Nset, nset=front
    1,    5,    6,    7,   10,   12,   15,   16,   19,   20,   23,   24,   45,   46,   47,   48
   49,   50,   51,   52,   53,   54,   55,   56,   67,   68,   79,   80,   81,   82,   83,   84
   85,   86,   87,   88,   93,   94,  102,  107,  108,  109,  110,  111,  112,  113,  114,  115
  116,  117,  118,  119,  120,  121,  122,  123,  124,  125,  126,  127,  128,  129,  130,  131
  132,  133,  134,  135,  136,  167,  168,  169,  170,  171,  172,  173,  174,  175,  176,  177
  178,  179,  180,  181,  182,  183,  184,  185,  186,  187,  188,  189,  190,  191,  192,  193
  194,  195,  196,  281,  282,  283,  284,  285,  286,  287,  288,  289,  290,  291,  292,  293
  294,  295,  296,  297,  298,  299,  300,  301,  302,  303,  304,  305,  306,  307,  308,  309
  310,  311,  312,  313,  314,  315,  316,  317,  318,  319,  320,  321,  322,  323,  324,  325
  326,  327,  328,  329,  330,  331,  332,  333,  334,  369,  370,  371,  372,  373,  374,  375
  376,  377,  378,  379,  380,  381,  382,  383,  384,  385,  386,  387,  388,  389,  390,  391
  392,  393,  394,  413,  414,  415,  416,  417,  418,  419,  420,  421,  422,  523,  524,  525
  526,  527,  528,  529,  530,  531,  532,  533,  534,  535,  831,  832,  833,  834,  835,  836
  837,  838,  839,  840,  841,  842,  843,  844,  845,  846,  847,  848,  849,  850,  851,  852
  853,  854,  855,  856,  857,  858,  859,  860, 1221, 1222, 1223, 1224, 1225, 1226, 1227, 1228
 1229, 1230, 1231, 1232, 1233, 1234, 1235, 1236, 1237, 1238, 1239, 1240, 1241, 1242, 1243, 1244
 1245, 1246, 1247, 1248, 1249, 1250, 1251, 1252, 1253, 1254, 1255, 1256, 1257, 1258, 1259, 1260
 1261, 1262, 1263, 1264, 1265, 1266, 1267, 1268, 1269, 1270, 1271, 1272, 1273, 1274, 1275, 1276
 1277, 1278, 1279, 1280, 1281, 1282, 1283, 1284, 1285, 1286, 1287, 1288, 1289, 1290, 1291, 1292
 1293, 1294, 1295, 1296, 1297, 1298, 1299, 1300, 1301, 1302, 1303, 1304, 1305, 1306, 1307, 1308
** ... 26 like lines cut
*Elset, elset=front
    1,    6,   11,   16,   21,   26,   31,   36,   41,   46,   51,   56,   61,   66,   71,   76
   81,   86,   91,   96,  101,  106,  111,  116,  121,  126,  131,  136,  149,  150,  159,  160
  169,  170,  179,  180,  189,  190,  199,  200,  209,  210,  219,  220,  229,  230,  239,  240
  249,  250,  259,  260,  269,  270,  279,  280,  289,  290,  299,  300,  309,  310,  319,  320
  329,  330,  339,  340,  349,  350,  359,  360,  369,  370,  379,  380,  389,  390,  399,  400
  409,  410,  419,  420,  429,  430,  439,  440,  449,  450, 2063, 2064, 2065, 2066, 2067, 2068
 2069, 2070, 2071, 2072, 2073, 2074, 2075, 2076, 2077, 2078, 2079, 2080, 2081, 2082, 2083, 2084
 2085, 2086, 2087, 2088, 2089, 2090, 2091, 2092, 2093, 2094, 2095, 2096, 2097, 2098, 2099, 2100
 2101, 2102, 2103, 2104, 2105, 2106, 2107, 2108, 2109, 2110, 2111, 2112, 2113, 2114, 2115, 2116
 2117, 2118, 2119, 2120, 2121, 2122, 2123, 2124, 2125, 2126, 2127, 2128, 2129, 2130, 2131, 2132
 2133, 2134, 2135, 2136, 2137, 2138, 2139, 2140, 2141, 2142, 2143, 2144, 2145, 2146, 2147, 2148
 2149, 2150, 2151, 2152, 2153, 2154, 2155, 2156, 2157, 2158, 2159, 2160, 2161, 2162, 2163, 2164
 2165, 2166, 2167, 2168, 2169, 2170, 2171, 2172, 2173, 2174, 2175, 2176, 2177, 2178, 2179, 2180
 2181, 2182, 2183, 2184, 2185, 2186, 2187, 2188, 2189, 2190, 2191, 2192, 2193, 2194, 2195, 2196
 2197, 2198, 2199, 2200, 2201, 2202, 2203, 2204, 2205, 2206, 2207, 2208, 2209, 2210, 2211, 2212
 2213, 2214, 2215, 2216, 2217, 2218, 2219, 2220, 2221, 2222, 2223, 2224, 2225, 2226, 2227, 2228
 2229, 2230, 2231, 2232, 2233, 2234, 2235, 2236, 2237, 2238, 2239, 2240, 2241, 2242, 2243, 2244
 2245, 2246, 2247, 2248, 2249, 2250, 2251, 2252, 2253, 2254, 2255, 2256, 2257, 2258, 2259, 2260
 2261, 2262, 2263, 2264, 2265, 2266, 2267, 2268, 2269, 2270, 2271, 2272, 2273, 2274, 2275, 2276
 2277, 2278, 2279, 2280, 2281, 2282, 2283, 2284, 2285, 2286, 2287, 2288, 2289, 2290, 2291, 2292
** ... 23 like lines cut
*Nset, nset=bottom
   13,   14,   15,   16,   18,   20,   97,   98,   99,  100,  101,  102,  103,  104,  105,  106
  269,  270,  271,  272,  273,  274,  275,  276,  277,  278,  279,  280,  323,  324,  325,  326
  327,  328,  329,  330,  331,  332,  333,  334,  335,  336,  337,  338,  557,  558,  559,  560
 1749, 1750, 1751, 1752, 1753, 1754, 1755, 1756, 1757, 1758, 1759, 1760, 1761, 1762, 1763, 1764
 1765, 1766, 1767, 1768, 1769, 1770, 1771, 1772, 1773, 1774, 1775, 1776, 1777, 1778, 1779, 1780
 1781, 1782, 1783, 1784, 1785, 1786, 1787, 1788, 1789, 1790, 1791, 1792, 1793, 1794, 1795, 1796
*Elset, elset=bottom
  441,  442,  443,  444,  445,  446,  447,  448,  449,  450,  841,  842,  843,  844,  845,  846
  847,  848,  849,  850,  851,  852,  853, 1244, 1245, 1246, 1247, 1248, 1249, 1250, 1251, 1252
 1253, 1254, 1255, 1256, 1647, 1648, 1649, 1650, 1651, 1652, 1653, 1654, 1655, 1656, 1657, 1658
 1659, 2050, 2051, 2052, 2053, 2054, 2055, 2056, 2057, 2058, 2059, 2060, 2061, 2062, 2453, 2454
 2455, 2456, 2457, 2458, 2459, 2460, 2461, 2462, 2463, 2464, 2465
*Nset, nset=outlet
   14,   15,   18,   20,   98,   99,  100,  101,  269,  270,  271,  272,  273,  274,  275,  276
  277,  278,  279,  280,  323,  324,  325,  326,  327,  328,  329,  330,  331,  332,  333,  334
  335,  336,  337,  338, 1749, 1750, 1751, 1752, 1753, 1754, 1755, 1756, 1757, 1758, 1759, 1760
 1761, 1762, 1763, 1764, 1765, 1766, 1767, 1768, 1769, 1770, 1771, 1772, 1773, 1774, 1775, 1776
 1777, 1778, 1779, 1780, 1781, 1782, 1783, 1784, 1785, 1786, 1787, 1788, 1789, 1790, 1791, 1792
 1793, 1794, 1795, 1796
*Elset, elset=outlet
  841,  842,  843,  844,  845,  846,  847,  848,  849,  850,  851,  852,  853, 1244, 1245, 1246
 1247, 1248, 1249, 1250, 1251, 1252, 1253, 1254, 1255, 1256, 1647, 1648, 1649, 1650, 1651, 1652
 1653, 1654, 1655, 1656, 1657, 1658, 1659, 2050, 2051, 2052, 2053, 2054, 2055, 2056, 2057, 2058
 2059, 2060, 2061, 2062, 2453, 2454, 2455, 2456, 2457, 2458, 2459, 2460, 2461, 2462, 2463, 2464
 2465,
*Nset, nset=top
    1,    2,    7,    8,   21,   23,   25,   26,   27,   28,   57,   58,   59,   60,   94,   96
  343,  344,  345,  346,  347,  348,  349,  350,  351,  352,  353,  354,  369,  370,  371,  372
  373,  374,  375,  376,  377,  378,  379,  380,  399,  400,  401,  402,  549,  550,  551,  552
 1893, 1894, 1895, 1896, 1897, 1898, 1899, 1900, 1901, 1902, 1903, 1904, 1905, 1906, 1907, 1908
 1909, 1910, 1911, 1912, 1913, 1914, 1915, 1916, 1917, 1918, 1919, 1920, 1921, 1922, 1923, 1924
 1925, 1926, 1927, 1928, 1929, 1930, 1931, 1932, 1933, 1934, 1935, 1936, 1937, 1938, 1939, 1940
*Elset, elset=top
    1,    2,    3,    4,    5,   71,   72,   73,   74,   75, 2468, 2471, 2474, 2477, 2480, 2483
 2486, 2489, 2492, 2495, 2498, 2501, 2504, 2507, 2510, 2513, 2516, 2519, 2522, 2525, 2528, 2531
 2534, 2537, 2540, 2543, 2546, 2549, 2552, 2555, 2558, 2561, 2564, 2567, 2570, 2573, 2576, 2579
 2582, 2585, 2588, 2591, 2594, 2597, 2600, 2603, 2606, 2609, 2612, 2615, 2618, 2621, 2624, 2627
 2630, 2633, 2636, 2639, 2642, 2645, 2648, 2651, 2654, 2657, 2660
*Nset, nset=all, generate
    1,  4416,     1
*Elset, elset=all, generate
    1,  3375,     1
*Nset, nset=back
    2,    3,    4,    8,    9,   11,   13,   14,   17,   18,   21,   22,   29,   30,   31,   32
   33,   34,   35,   36,   37,   38,   39,   40,   61,   62,   69,   70,   71,   72,   73,   74
   75,   76,   77,   78,   95,   96,   97,  137,  138,  139,  140,  141,  142,  143,  144,  145
  146,  147,  148,  149,  150,  151,  152,  153,  154,  155,  156,  157,  158,  159,  160,  161
  162,  163,  164,  165,  166,  197,  198,  199,  200,  201,  202,  203,  204,  205,  206,  207
  208,  209,  210,  211,  212,  213,  214,  215,  216,  217,  218,  219,  220,  221,  222,  223
  224,  225,  226,  227,  228,  229,  230,  231,  232,  233,  234,  235,  236,  237,  238,  239
  240,  241,  242,  243,  244,  245,  246,  247,  248,  249,  250,  251,  252,  253,  254,  255
  256,  257,  258,  259,  260,  261,  262,  263,  264,  265,  266,  267,  268,  269,  270,  271
  272,  273,  274,  275,  276,  277,  278,  279,  280,  343,  344,  345,  346,  347,  348,  349
  350,  351,  352,  353,  354,  355,  356,  357,  358,  359,  360,  361,  362,  363,  364,  365
  366,  367,  368,  403,  404,  405,  406,  407,  408,  409,  410,  411,  412,  536,  537,  538
  539,  540,  541,  542,  543,  544,  545,  546,  547,  548,  801,  802,  803,  804,  805,  806
  807,  808,  809,  810,  811,  812,  813,  814,  815,  816,  817,  818,  819,  820,  821,  822
  823,  824,  825,  826,  827,  828,  829,  830,  861,  862,  863,  864,  865,  866,  867,  868
  869,  870,  871,  872,  873,  874,  875,  876,  877,  878,  879,  880,  881,  882,  883,  884
  885,  886,  887,  888,  889,  890,  891,  892,  893,  894,  895,  896,  897,  898,  899,  900
  901,  902,  903,  904,  905,  906,  907,  908,  909,  910,  911,  912,  913,  914,  915,  916
  917,  918,  919,  920,  921,  922,  923,  924,  925,  926,  927,  928,  929,  930,  931,  932
  933,  934,  935,  936,  937,  938,  939,  940,  941,  942,  943,  944,  945,  946,  947,  948
** ... 26 like lines cut
*Elset, elset=back
    5,   10,   15,   20,   25,   30,   35,   40,   45,   50,   55,   60,   65,   70,   75,   80
   85,   90,   95,  100,  105,  110,  115,  120,  125,  130,  135,  140,  141,  142,  151,  152
  161,  162,  171,  172,  181,  182,  191,  192,  201,  202,  211,  212,  221,  222,  231,  232
  241,  242,  251,  252,  261,  262,  271,  272,  281,  282,  291,  292,  301,  302,  311,  312
  321,  322,  331,  332,  341,  342,  351,  352,  361,  362,  371,  372,  381,  382,  391,  392
  401,  402,  411,  412,  421,  422,  431,  432,  441,  442,  451,  452,  453,  454,  455,  456
  457,  458,  459,  460,  461,  462,  463,  464,  465,  466,  467,  468,  469,  470,  471,  472
  473,  474,  475,  476,  477,  478,  479,  480,  481,  482,  483,  484,  485,  486,  487,  488
  489,  490,  491,  492,  493,  494,  495,  496,  497,  498,  499,  500,  501,  502,  503,  504
  505,  506,  507,  508,  509,  510,  511,  512,  513,  514,  515,  516,  517,  518,  519,  520
  521,  522,  523,  524,  525,  526,  527,  528,  529,  530,  531,  532,  533,  534,  535,  536
  537,  538,  539,  540,  541,  542,  543,  544,  545,  546,  547,  548,  549,  550,  551,  552
  553,  554,  555,  556,  557,  558,  559,  560,  561,  562,  563,  564,  565,  566,  567,  568
  569,  570,  571,  572,  573,  574,  575,  576,  577,  578,  579,  580,  581,  582,  583,  584
  585,  586,  587,  588,  589,  590,  591,  592,  593,  594,  595,  596,  597,  598,  599,  600
  601,  602,  603,  604,  605,  606,  607,  608,  609,  610,  611,  612,  613,  614,  615,  616
  617,  618,  619,  620,  621,  622,  623,  624,  625,  626,  627,  628,  629,  630,  631,  632
  633,  634,  635,  636,  637,  638,  639,  640,  641,  642,  643,  644,  645,  646,  647,  648
  649,  650,  651,  652,  653,  654,  655,  656,  657,  658,  659,  660,  661,  662,  663,  664
  665,  666,  667,  668,  669,  670,  671,  672,  673,  674,  675,  676,  677,  678,  679,  680
** ... 23 like lines cut
*Nset, nset=material
    9,   10,   11,   12,   14,   15,   17,   18,   19,   20,   22,   24,   63,   64,   65,   66
   69,   70,   71,   72,   73,   74,   75,   76,   77,   78,   79,   80,   81,   82,   83,   84
   85,   86,   87,   88,   89,   90,   91,   92,   98,   99,  100,  101,  167,  168,  169,  170
  171,  172,  173,  174,  175,  176,  177,  178,  179,  180,  181,  182,  183,  184,  185,  186
  187,  188,  189,  190,  191,  192,  193,  194,  195,  196,  197,  198,  199,  200,  201,  202
  203,  204,  205,  206,  207,  208,  209,  210,  211,  212,  213,  214,  215,  216,  217,  218
  219,  220,  221,  222,  223,  224,  225,  226,  227,  228,  229,  230,  231,  232,  233,  234
  235,  236,  237,  238,  239,  240,  241,  242,  243,  244,  245,  246,  247,  248,  249,  250
  251,  252,  253,  254,  255,  256,  257,  258,  259,  260,  261,  262,  263,  264,  265,  266
  267,  268,  269,  270,  271,  272,  273,  274,  275,  276,  277,  278,  279,  280,  281,  282
  283,  284,  285,  286,  287,  288,  289,  290,  291,  292,  293,  294,  295,  296,  297,  298
  299,  300,  301,  302,  303,  304,  305,  306,  307,  308,  309,  310,  311,  312,  313,  314
  315,  316,  317,  318,  319,  320,  321,  322,  323,  324,  325,  326,  327,  328,  329,  330
  331,  332,  333,  334,  335,  336,  337,  338,  339,  340,  341,  342,  357,  358,  359,  360
  361,  362,  363,  364,  365,  366,  367,  368,  383,  384,  385,  386,  387,  388,  389,  390
  391,  392,  393,  394,  395,  396,  397,  398,  403,  404,  405,  406,  407,  408,  409,  410
  411,  412,  413,  414,  415,  416,  417,  418,  419,  420,  421,  422,  483,  484,  485,  486
  487,  488,  489,  490,  491,  492,  493,  494,  495,  496,  497,  498,  499,  500,  501,  502
  503,  504,  505,  506,  507,  508,  509,  510,  511,  512,  513,  514,  515,  516,  517,  518
  519,  520,  521,  522,  681,  682,  683,  684,  685,  686,  687,  688,  689,  690,  691,  692
** ... 206 like lines cut
*Elset, elset=material
  451,  452,  453,  454,  455,  456,  457,  458,  459,  460,  461,  462,  463,  464,  465,  466
  467,  468,  469,  470,  471,  472,  473,  474,  475,  476,  477,  478,  479,  480,  481,  482
  483,  484,  485,  486,  487,  488,  489,  490,  491,  492,  493,  494,  495,  496,  497,  498
  499,  500,  501,  502,  503,  504,  505,  506,  507,  508,  509,  510,  511,  512,  513,  514
  515,  516,  517,  518,  519,  520,  521,  522,  523,  524,  525,  526,  527,  528,  529,  530
  531,  532,  533,  534,  535,  536,  537,  538,  539,  540,  541,  542,  543,  544,  545,  546
  547,  548,  549,  550,  551,  552,  553,  554,  555,  556,  557,  558,  559,  560,  561,  562
  563,  564,  565,  566,  567,  568,  569,  570,  571,  572,  573,  574,  575,  576,  577,  578
  579,  580,  581,  582,  583,  584,  585,  586,  587,  588,  589,  590,  591,  592,  593,  594
  595,  596,  597,  598,  599,  600,  601,  602,  603,  604,  605,  606,  607,  608,  609,  610
  611,  612,  613,  614,  615,  616,  617,  618,  619,  620,  621,  622,  623,  624,  625,  626
  627,  628,  629,  630,  631,  632,  633,  634,  635,  636,  637,  638,  639,  640,  641,  642
  643,  644,  645,  646,  647,  648,  649,  650,  651,  652,  653,  654,  655,  656,  657,  658
  659,  660,  661,  662,  663,  664,  665,  666,  667,  668,  669,  670,  671,  672,  673,  674
  675,  676,  677,  678,  679,  680,  681,  682,  683,  684,  685,  686,  687,  688,  689,  690
  691,  692,  693,  694,  695,  696,  697,  698,  699,  700,  701,  702,  703,  704,  705,  706
  707,  708,  709,  710,  711,  712,  713,  714,  715,  716,  717,  718,  719,  720,  721,  722
  723,  724,  725,  726,  727,  728,  729,  730,  731,  732,  733,  734,  735,  736,  737,  738
  739,  740,  741,  742,  743,  744,  745,  746,  747,  748,  749,  750,  751,  752,  753,  754
  755,  756,  757,  758,  759,  760,  761,  762,  763,  764,  765,  766,  767,  768,  769,  770
** ... 151 like lines cut
*Nset, nset=sym
   17,   18,   19,   20,   21,   22,   23,   24,  239,  240,  241,  242,  243,  244,  245,  246
  247,  248,  249,  250,  251,  252,  253,  254,  255,  256,  257,  258,  259,  260,  261,  262
  263,  264,  265,  266,  267,  268,  293,  294,  295,  296,  297,  298,  299,  300,  301,  302
  303,  304,  305,  306,  307,  308,  309,  310,  311,  312,  313,  314,  315,  316,  317,  318
  319,  320,  321,  322,  335,  336,  337,  338,  339,  340,  341,  342,  355,  356,  381,  382
  395,  396,  397,  398,  399,  400,  401,  402,  403,  404,  405,  406,  407,  408,  409,  410
  411,  412,  413,  414,  415,  416,  417,  418,  419,  420,  421,  422, 1581, 1582, 1583, 1584
 1585, 1586, 1587, 1588, 1589, 1590, 1591, 1592, 1593, 1594, 1595, 1596, 1597, 1598, 1599, 1600
 1601, 1602, 1603, 1604, 1605, 1606, 1607, 1608, 1609, 1610, 1611, 1612, 1613, 1614, 1615, 1616
 1617, 1618, 1619, 1620, 1621, 1622, 1623, 1624, 1625, 1626, 1627, 1628, 1629, 1630, 1631, 1632
 1633, 1634, 1635, 1636, 1637, 1638, 1639, 1640, 1641, 1642, 1643, 1644, 1645, 1646, 1647, 1648
 1649, 1650, 1651, 1652, 1653, 1654, 1655, 1656, 1657, 1658, 1659, 1660, 1661, 1662, 1663, 1664
 1665, 1666, 1667, 1668, 1669, 1670, 1671, 1672, 1673, 1674, 1675, 1676, 1677, 1678, 1679, 1680
 1681, 1682, 1683, 1684, 1685, 1686, 1687, 1688, 1689, 1690, 1691, 1692, 1693, 1694, 1695, 1696
 1697, 1698, 1699, 1700, 1941, 1942, 1943, 1944, 1945, 1946, 1947, 1948, 2189, 2190, 2191, 2192
 2193, 2194, 2195, 2196, 2197, 2198, 2199, 2200, 2201, 2202, 2203, 2204, 2205, 2206, 2207, 2208
 2209, 2210, 2211, 2212, 2213, 2214, 2215, 2216, 2217, 2218, 2219, 2220, 2221, 2222, 2223, 2224
 2225, 2226, 2227, 2228
*Elset, elset=sym
  463,  476,  489,  502,  515,  528,  541,  554,  567,  580,  593,  606,  619,  632,  645,  658
  671,  684,  697,  710,  723,  736,  749,  762,  775,  788,  801,  814,  827,  840,  853,  866
  879,  892,  905,  918,  931,  944,  957,  970,  983,  996, 1009, 1022, 1035, 1048, 1061, 1074
 1087, 1100, 1113, 1126, 1139, 1152, 1165, 1178, 1191, 1204, 1217, 1230, 1243, 1256, 1269, 1282
 1295, 1308, 1321, 1334, 1347, 1360, 1373, 1386, 1399, 1412, 1425, 1438, 1451, 1464, 1477, 1490
 1503, 1516, 1529, 1542, 1555, 1568, 1581, 1594, 1607, 1620, 1633, 1646, 1659, 1672, 1685, 1698
 1711, 1724, 1737, 1750, 1763, 1776, 1789, 1802, 1815, 1828, 1841, 1854, 1867, 1880, 1893, 1906
 1919, 1932, 1945, 1958, 1971, 1984, 1997, 2010, 2023, 2036, 2049, 2062, 2075, 2088, 2101, 2114
 2127, 2140, 2153, 2166, 2179, 2192, 2205, 2218, 2231, 2244, 2257, 2270, 2283, 2296, 2309, 2322
 2335, 2348, 2361, 2374, 2387, 2400, 2413, 2426, 2439, 2452, 2465, 2502, 2503, 2504, 2541, 2542
 2543, 2580, 2581, 2582, 2619, 2620, 2621, 2658, 2659, 2660, 2661, 2674, 2687, 2700, 2713, 2726
 2739, 2752, 2765, 2778, 2791, 2804, 2817, 2830, 2843, 2856, 2869, 2882, 2895, 2908, 2921, 2934
 2947, 2960, 2973, 2986, 2999, 3012, 3025, 3038, 3051, 3064, 3077, 3090, 3103, 3116, 3129, 3142
 3155, 3168, 3181, 3194, 3207, 3220, 3233, 3246, 3259, 3272, 3285, 3298, 3311, 3324, 3337, 3350
 3363,
*Elset, elset=_surf_bottom_S2, internal, generate
 441,  450,    1
*Elset, elset=_surf_bottom_S5, internal
  841,  842,  843,  844,  845,  846,  847,  848,  849,  850,  851,  852,  853, 1244, 1245, 1246
 1247, 1248, 1249, 1250, 1251, 1252, 1253, 1254, 1255, 1256, 1647, 1648, 1649, 1650, 1651, 1652
 1653, 1654, 1655, 1656, 1657, 1658, 1659, 2050, 2051, 2052, 2053, 2054, 2055, 2056, 2057, 2058
 2059, 2060, 2061, 2062, 2453, 2454, 2455, 2456, 2457, 2458, 2459, 2460, 2461, 2462, 2463, 2464
 2465,
*Surface, type=ELEMENT, name=surf_bottom
_surf_bottom_S2, S2
_surf_bottom_S5, S5
*Elset, elset=_surf_top_S4, internal, generate
 2468,  2660,     3
*Elset, elset=_surf_top_S3, internal
  1,  2,  3,  4,  5, 71, 72, 73, 74, 75
*Surface, type=ELEMENT, name=surf_top
_surf_top_S4, S4
_surf_top_S3, S3
** Section: EULsection
*Eulerian Section, elset=all
engineered, lalm-1
*Surface, type=EULERIAN MATERIAL, name=lalm-1
lalm-1
*End Part
**  
*Part, name=Hopper
*Node
      1, -0.300000012,  0.693012714, 0.0250000004
      2, -0.300000012,  0.433012694, 0.0250000004
      3, -0.300000012,  0.433012694,           0.
      4, -0.300000012,  0.693012714,           0.
      5, -0.0500000007,           0., 0.0250000004
      6, -0.0500000007,           0.,           0.
      7, -0.300000012,   0.67771858, 0.0250000004
      8, -0.300000012,  0.662424445, 0.0250000004
      9, -0.300000012,   0.64713037, 0.0250000004
     10, -0.300000012,  0.631836236, 0.0250000004
     11, -0.300000012,  0.616542101, 0.0250000004
     12, -0.300000012,  0.601247966, 0.0250000004
     13, -0.300000012,  0.585953891, 0.0250000004
     14, -0.300000012,  0.570659757, 0.0250000004
     15, -0.300000012,  0.555365622, 0.0250000004
     16, -0.300000012,  0.540071547, 0.0250000004
     17, -0.300000012,  0.524777412, 0.0250000004
     18, -0.300000012,  0.509483278, 0.0250000004
     19, -0.300000012,  0.494189173, 0.0250000004
     20, -0.300000012,  0.478895068, 0.0250000004
** ... 286 like lines cut
*Element, type=R3D4
 1,   1,   7, 115,  46
 2,   7,   8, 116, 115
 3,   8,   9, 117, 116
 4,   9,  10, 118, 117
 5,  10,  11, 119, 118
 6,  11,  12, 120, 119
 7,  12,  13, 121, 120
 8,  13,  14, 122, 121
 9,  14,  15, 123, 122
10,  15,  16, 124, 123
11,  16,  17, 125, 124
12,  17,  18, 126, 125
13,  18,  19, 127, 126
14,  19,  20, 128, 127
15,  20,  21, 129, 128
16,  21,  22, 130, 129
17,  22,   2,  23, 130
18,  46, 115, 131,  45
19, 115, 116, 132, 131
20, 116, 117, 133, 132
** ... 230 like lines cut
*Node
    307, -0.0500000007,           0., 0.0125000002
*Nset, nset=Hopper-RefPt_, internal
307, 
*Nset, nset=RP
 307,
*Elset, elset=_inner_SPOS, internal, generate
   1,  250,    1
*Surface, type=ELEMENT, name=inner
_inner_SPOS, SPOS
*Elset, elset=Hopper, generate
   1,  250,    1
*End Part
**  
**
** ASSEMBLY
**
*Assembly, name=Assembly
**  
*Instance, name=Domain-1, part=Domain
     -0.0125,           0.,           0.
     -0.0125,           0.,           0., 0.564850269189626, 0.577350269189626, 0.577350269189626,         120.
*End Instance
**  
*Instance, name=Hopper-1, part=Hopper
     -0.0125, -7.65404249467096e-19, 7.65404249467096e-19
     -0.0125, -7.65404249467096e-19, 7.65404249467096e-19, 0.564850269189626, 0.577350269189626, 0.577350269189626,         120.
*End Instance
**  
*Rigid Body, ref node=Hopper-1.Hopper-RefPt_, elset=Hopper-1.Hopper
*End Assembly
*Amplitude, name=smo_g, definition=SMOOTH STEP
             0.,              0.,              1.,              1.,              2.,              1.
** 
** MATERIALS
** 
*Material, name=LALM
*Density
290.,
*Depvar
      3,
*User Material, constants=12
 1.381, 0.5003, 1.0623,   47.3,187549.,     1.,    0.3,    0.3
     0.,     0.,     0.,     0.
*Material, name=MC
*Density
300.,
*Elastic
 1.86258e+06, 0.04
*Mohr Coulomb
 47.3,1.
*Mohr Coulomb Hardening
 0.1,0.
*Material, name=engineered
*Density
200.,
*Depvar
      3,
*User Material, constants=12
 1.424,      0.5911,      1.1867,        49.6, 1.03462e+06,         0.5,        0.35,         0.4
          0.,          0.,          0.,          0.
*Initial Conditions, Type=Solution
Domain-1.all, 0.7102,0.0001,0
** 
** INTERACTION PROPERTIES
** 
*Surface Interaction, name=Friction
*Friction
 0.15,
*Surface Behavior, pressure-overclosure=HARD
*Surface Interaction, name=Frictionless
*Friction
0.,
*Surface Behavior, pressure-overclosure=HARD
** 
** BOUNDARY CONDITIONS
** 
** Name: back Type: Symmetry/Antisymmetry/Encastre
*Boundary
Domain-1.back, XSYMM
** Name: front Type: Symmetry/Antisymmetry/Encastre
*Boundary
Domain-1.front, XSYMM
** Name: middle Type: Symmetry/Antisymmetry/Encastre
*Boundary
Domain-1.sym, YSYMM
** 
** PREDEFINED FIELDS
** 
** Name: Mat_assign   Type: Material assignment
*Initial Conditions, type=VOLUME FRACTION
Domain-1.material, Domain-1.lalm-1, 1.
** Name: initial_10   Type: Stress
*Initial Conditions, type=STRESS
Domain-1.material, -10., -10., -10., 0., 0., 0.
** 
** INTERACTIONS
** 
** Interaction: General
*Contact, op=NEW
*Contact Inclusions
Hopper-1.inner , Domain-1.lalm-1
*Contact Property Assignment
 ,  , Friction
** ----------------------------------------------------------------
** 
** STEP: Gravity
** 
*Step, name=Gravity, nlgeom=YES
*Dynamic, Explicit, direct user control
1e-05, 2.
*Bulk Viscosity
0.06, 1.2
** 
** BOUNDARY CONDITIONS
** 
** Name: Hopper Type: Displacement/Rotation
*Boundary
Hopper-1.RP, 1, 1
Hopper-1.RP, 2, 2
Hopper-1.RP, 3, 3
Hopper-1.RP, 4, 4
Hopper-1.RP, 5, 5
Hopper-1.RP, 6, 6
** Name: bottom_outflow Type: Eulerian boundary
*Eulerian Boundary, inflow=NONE, outflow=NONE
Domain-1.surf_bottom
** Name: top_inflow Type: Eulerian boundary
*Eulerian Boundary, inflow=NONE, outflow=NONE
Domain-1.surf_top
** 
** LOADS
** 
** Name: Gravity   Type: Gravity
*Dload, amplitude=smo_g
Domain-1.material, GRAV, 9.81, 0., 0., -1.
** 
** OUTPUT REQUESTS
** 
*Restart, write, number interval=1, time marks=NO
** 
** FIELD OUTPUT: F-Output-1
** 
*Output, field, time interval=0.05
*Node Output
RF, U, V
*Element Output, directions=YES
DENSITY, DENSITYVAVG, EVF, LE, MVF, S, SDV, SVAVG
*Contact Output
CFORCE, CSTRESS
** 
** HISTORY OUTPUT: H-Output-1
** 
*Output, history, variable=PRESELECT
*End Step
** ----------------------------------------------------------------
** 
** STEP: Discharging
** 
*Step, name=Discharging, nlgeom=YES
*Dynamic, Explicit
, 16.,, 5e-06
*Bulk Viscosity
0.06, 1.2
** 
** BOUNDARY CONDITIONS
** 
** Name: bottom_outflow Type: Eulerian boundary
*Eulerian Boundary, inflow=NONE, outflow=ZERO PRESSURE
Domain-1.surf_bottom
** Name: top_inflow Type: Eulerian boundary
*Eulerian Boundary, inflow=VOID, outflow=ZERO PRESSURE
Domain-1.surf_top
** 
** LOADS
** 
** Name: Gravity   Type: Gravity
** 
** OUTPUT REQUESTS
** 
*Restart, write, overlay, number interval=16, time marks=NO
** 
** FIELD OUTPUT: F-Output-1
** 
*Output, field, time interval=0.05
*Node Output
RF, U, V
*Element Output, directions=YES
DENSITY, DENSITYVAVG, EVF, LE, MVF, S, SDV, SVAVG
*Contact Output
CFORCE, CSTRESS
** 
** HISTORY OUTPUT: H-Output-1
** 
*Output, history, variable=PRESELECT
*End Step
