*Heading
** Job name: LALM-M1-DPC-eta-30-pre-60 Model name: Schulze-M1-DPC-eta-30-LALM
** Generated by: Abaqus/CAE 2018.HF3
*Preprint, echo=NO, model=NO, history=NO, contact=NO
**
** PARTS
**
*Part, name=Biomass
*Node
      1,  0.100000001,           0.,           0.
      2,  0.100000001, 0.0299999993,           0.
      3, 0.0500000007, 0.0299999993,           0.
      4, 0.0500000007,           0.,           0.
      5, -0.100000001, 0.0299999993,           0.
      6, -0.100000001,           0.,           0.
      7, -0.0500000007,           0.,           0.
      8, -0.0500000007, 0.0299999993,           0.
      9,  0.100000001, 0.0399999991,           0.
     10, 0.0500000007, 0.0399999991,           0.
     11, -0.0500000007, 0.0399999991,           0.
     12, -0.100000001, 0.0399999991,           0.
     13,  0.100000001, 0.00374999992,           0.
     14,  0.100000001, 0.00749999983,           0.
     15,  0.100000001, 0.0112500004,           0.
     16,  0.100000001, 0.0149999997,           0.
     17,  0.100000001, 0.0187500007,           0.
     18,  0.100000001, 0.0225000009,           0.
     19,  0.100000001, 0.0262499992,           0.
     20, 0.0961538479, 0.0299999993,           0.
** ... 21692 like lines cut
*Element, type=C3D8R
   1,   843,   842,    46,    45,  7583,  7582,  2115,  2116
   2,   827,    14,    13,   822,  7567,  2812,  2813,  7562
   3,    19,   911,    20,     2,  2807,  7651,  1009,   108
   4,    23,    22,   834,   833,  1012,  1011,  7574,  7573
   5,   823,    18,    17,   824,  7563,  2808,  2809,  7564
   6,   863,    49,    48,   854,  7603,  2112,  2113,  7594
   7,   855,   897,   876,   882,  7595,  7637,  7616,  7622
   8,    49,   863,   822,    50,  2112,  7603,  7562,  2111
   9,   840,    32,     3,    31,  7580,  1711,   109,  1020
  10,   839,    33,    32,   840,  7579,  1710,  1711,  7580
  11,    30,   864,   840,    31,  1019,  7604,  7580,  1020
  12,   869,   844,   845,   856,  7609,  7584,  7585,  7596
  13,   845,   844,    44,    43,  7585,  7584,  2117,  2118
  14,   829,   828,    29,    28,  7569,  7568,  1018,  1017
  15,    27,    26,   830,   821,  1016,  1015,  7570,  7561
  16,   831,   830,    26,    25,  7571,  7570,  1015,  1014
  17,   842,   865,   855,   841,  7582,  7605,  7595,  7581
  18,   865,   885,   897,   855,  7605,  7625,  7637,  7595
  19,    24,    23,   833,   832,  1013,  1012,  7573,  7572
  20,   911,   895,    21,    20,  7651,  7635,  1010,  1009
** ... 18624 like lines cut
*Nset, nset=Set-1, generate
     1,  21712,      1
*Elset, elset=Set-1, generate
     1,  18644,      1
*Nset, nset=Set-ale
     2,     3,     5,     8,     9,    10,    11,    12,    20,    21,    22,    23,    24,    25,    26,    27
    28,    29,    30,    31,    51,    52,    53,    54,    55,    56,    57,    58,    59,    60,    61,    62
    63,    64,    65,    66,    67,    68,    69,    70,    71,    72,    73,    74,    75,    76,    77,    78
    79,    80,    81,    82,    83,    84,    85,    86,    87,    88,    89,    90,    91,    92,    93,    94
    95,    96,    97,    98,    99,   100,   101,   102,   103,   104,   105,   106,   107,   108,   109,   110
   111,   112,   113,   114,   115,   116,   117,   118,   119,   120,   121,   122,   123,   124,   125,   126
   127,   128,   129,   130,   131,   132,   133,   134,   135,   136,   137,   138,   139,   140,   141,   142
   143,   144,   145,   146,   147,   148,   149,   150,   151,   152,   153,   154,   155,   156,   157,   158
   159,   160,   161,   162,   163,   164,   165,   166,   309,   310,   311,   312,   313,   314,   315,   316
   317,   318,   319,   320,   321,   322,   323,   324,   325,   326,   327,   328,   329,   330,   331,   332
   333,   334,   335,   336,   337,   338,   339,   340,   341,   342,   343,   344,   345,   346,   347,   348
   349,   350,   351,   352,   353,   354,   355,   356,   357,   358,   359,   360,   361,   362,   363,   364
   365,   366,   367,   368,   369,   370,   371,   372,   373,   374,   375,   376,   377,   378,   379,   380
   381,   382,   383,   384,   385,   386,   387,   388,   389,   390,   391,   392,   393,   394,   395,   396
   397,   398,   399,   400,   401,   402,   403,   404,   405,   406,   407,   408,   409,   410,   411,   412
   413,   414,   415,   416,   417,   418,   419,   420,   421,   422,   423,   424,   425,   426,   427,   428
   429,   430,   431,   432,   433,   434,   435,   436,   553,   554,   555,   556,   557,   558,   559,   560
   561,   562,   563,   564,   565,   566,   567,   568,   569,   570,   571,   572,   573,   574,   575,   576
   577,   578,   579,   580,   581,   582,   583,   584,   585,   586,   587,   588,   589,   590,   591,   592
   593,   594,   595,   596,   597,   598,   599,   600,   601,   602,   603,   604,   605,   606,   607,   608
** ... 438 like lines cut
*Elset, elset=Set-ale, generate
 13453,  18644,      1
** Section: DPC
*Solid Section, elset=Set-1, controls=EC-1, material=MDPC_LALM_pine
,
*End Part
**  
*Part, name=Container-bottom
*End Part
**  
*Part, name=Container-inner
*End Part
**  
*Part, name=Container-outer
*End Part
**  
*Part, name=Container-top
*End Part
**  
**
** ASSEMBLY
**
*Assembly, name=Assembly
**  
*Instance, name=Biomass-1, part=Biomass
*End Instance
**  
*Instance, name=Container-bottom-1, part=Container-bottom
*Node
      1,           0.,           0., -6.73555719e-18
*Nset, nset=Container-bottom-1-RefPt_, internal
1, 
*Nset, nset=RP
 1,
*Surface, type=REVOLUTION, name=Surf-master-bottom
START,         0.04,           0.
 LINE,         0.05,           0.
 LINE,          0.1,           0.
 LINE,         0.11,           0.
*Rigid Body, ref node=Container-bottom-1-RefPt_, analytical surface=Surf-master-bottom
*Element, type=MASS, elset=RP_Inertia-1_MASS_
1, 1
*Mass, elset=RP_Inertia-1_MASS_
0.001, 
*Element, type=ROTARYI, elset=RP_Inertia-1_ROTI_
2, 1
*Rotary Inertia, elset=RP_Inertia-1_ROTI_
0.001, 0.001, 0.001, 0., 0., 0.
*End Instance
**  
*Instance, name=Container-inner-1, part=Container-inner
*Node
      1,           0., 0.0399999991, -3.06161692e-18
*Nset, nset=Container-inner-1-RefPt_, internal
1, 
*Nset, nset=RP
 1,
*Surface, type=REVOLUTION, name=Surf-master-inner
START,         0.05,         0.04
 LINE,         0.05,           0.
*Rigid Body, ref node=Container-inner-1-RefPt_, analytical surface=Surf-master-inner
*Element, type=MASS, elset=RP_Inertia-1_MASS_
1, 1
*Mass, elset=RP_Inertia-1_MASS_
0.001, 
*Element, type=ROTARYI, elset=RP_Inertia-1_ROTI_
2, 1
*Rotary Inertia, elset=RP_Inertia-1_ROTI_
0.001, 0.001, 0.001, 0., 0., 0.
*End Instance
**  
*Instance, name=Container-outer-1, part=Container-outer
*Node
      1,           0., 0.0399999991, -6.12323385e-18
*Nset, nset=Container-outer-1-RefPt_, internal
1, 
*Nset, nset=RP
 1,
*Surface, type=REVOLUTION, name=Surf-master-outer
START,          0.1,           0.
 LINE,          0.1,         0.04
*Rigid Body, ref node=Container-outer-1-RefPt_, analytical surface=Surf-master-outer
*Element, type=MASS, elset=RP_Inertia-1_MASS_
1, 1
*Mass, elset=RP_Inertia-1_MASS_
0.001, 
*Element, type=ROTARYI, elset=RP_Inertia-1_ROTI_
2, 1
*Rotary Inertia, elset=RP_Inertia-1_ROTI_
0.001, 0.001, 0.001, 0., 0., 0.
*End Instance
**  
*Instance, name=Container-top-1, part=Container-top
*Node
      1,           0., 0.0399999991, -6.73555719e-18
*Nset, nset=Container-top-1-RefPt_, internal
1, 
*Nset, nset=RP
 1,
*Surface, type=REVOLUTION, name=Surf-master-top
START,         0.11,         0.04
 LINE,          0.1,         0.04
 LINE,         0.05,         0.04
 LINE,         0.04,         0.04
*Rigid Body, ref node=Container-top-1-RefPt_, analytical surface=Surf-master-top
*Element, type=MASS, elset=RP_Inertia-1_MASS_
1, 1
*Mass, elset=RP_Inertia-1_MASS_
0.001, 
*Element, type=ROTARYI, elset=RP_Inertia-1_ROTI_
2, 1
*Rotary Inertia, elset=RP_Inertia-1_ROTI_
0.001, 0.001, 0.001, 0., 0., 0.
*End Instance
**  
*Nset, nset=Set-bottom, instance=Biomass-1
    1,    4,    6,    7,   39,   40,   41,   42,   43,   44,   45,   46,   47,   48,   49,   50
  167,  168,  169,  170,  171,  172,  173,  174,  175,  176,  177,  178,  179,  180,  181,  182
  183,  184,  185,  186,  187,  188,  189,  190,  191,  192,  193,  194,  195,  196,  197,  198
  199,  200,  201,  202,  203,  204,  205,  206,  207,  208,  209,  210,  211,  212,  213,  214
  215,  216,  217,  218,  219,  220,  221,  222,  223,  224,  225,  226,  227,  228,  229,  230
  231,  232,  233,  234,  235,  236,  237,  238,  239,  240,  241,  242,  243,  244,  245,  246
  247,  248,  249,  250,  251,  252,  253,  254,  255,  256,  257,  258,  259,  260,  261,  262
  263,  264,  265,  266,  267,  268,  269,  270,  271,  272,  273,  274,  275,  276,  277,  278
  279,  280,  281,  282,  290,  291,  292,  293,  294,  295,  296,  297,  298,  299,  300,  301
  437,  438,  439,  440,  441,  442,  443,  444,  445,  446,  447,  448,  449,  450,  451,  452
  453,  454,  455,  456,  457,  458,  459,  460,  461,  462,  463,  464,  465,  466,  467,  468
  469,  470,  471,  472,  473,  474,  475,  476,  477,  478,  479,  480,  481,  482,  483,  484
  485,  486,  487,  488,  489,  490,  491,  492,  493,  494,  495,  496,  497,  498,  499,  500
  501,  502,  503,  504,  505,  506,  507,  508,  509,  510,  511,  512,  513,  514,  515,  516
  517,  518,  519,  520,  521,  522,  523,  524,  525,  526,  527,  528,  529,  530,  531,  532
  533,  534,  535,  536,  537,  538,  539,  540,  541,  542,  543,  544,  545,  546,  547,  548
  549,  550,  551,  552, 2111, 2112, 2113, 2114, 2115, 2116, 2117, 2118, 2119, 2120, 2121, 2122
 2123, 2124, 2125, 2126, 2127, 2128, 2129, 2130, 2131, 2132, 2133, 2134, 2135, 2136, 2137, 2138
 2139, 2140, 2141, 2142, 2143, 2144, 2145, 2146, 2147, 2148, 2149, 2150, 2151, 2152, 2153, 2154
 2155, 2156, 2157, 2158, 2159, 2160, 2161, 2162, 2163, 2164, 2165, 2166, 2167, 2168, 2169, 2170
** ... 84 like lines cut
*Elset, elset=Set-bottom, instance=Biomass-1
     1,     6,     8,    13,    21,    22,    26,    27,    30,    31,    34,    35,    61,   115,   120,   122
   127,   135,   136,   140,   141,   144,   145,   148,   149,   175,   229,   234,   236,   241,   249,   250
   254,   255,   258,   259,   262,   263,   289,   343,   348,   350,   355,   363,   364,   368,   369,   372
   373,   376,   377,   403,   457,   462,   464,   469,   477,   478,   482,   483,   486,   487,   490,   491
   517,   571,   576,   578,   583,   591,   592,   596,   597,   600,   601,   604,   605,   631,   685,   690
   692,   697,   705,   706,   710,   711,   714,   715,   718,   719,   745,   799,   804,   806,   811,   819
   820,   824,   825,   828,   829,   832,   833,   859,   913,   918,   920,   925,   933,   934,   938,   939
   942,   943,   946,   947,   973,  1027,  1032,  1034,  1039,  1047,  1048,  1052,  1053,  1056,  1057,  1060
  1061,  1087,  1141,  1146,  1148,  1153,  1161,  1162,  1166,  1167,  1170,  1171,  1174,  1175,  1201,  1255
  1260,  1262,  1267,  1275,  1276,  1280,  1281,  1284,  1285,  1288,  1289,  1315,  1369,  1374,  1376,  1381
  1389,  1390,  1394,  1395,  1398,  1399,  1402,  1403,  1429,  1483,  1488,  1490,  1495,  1503,  1504,  1508
  1509,  1512,  1513,  1516,  1517,  1543,  1597,  1602,  1604,  1609,  1617,  1618,  1622,  1623,  1626,  1627
  1630,  1631,  1657,  1711,  1716,  1718,  1723,  1731,  1732,  1736,  1737,  1740,  1741,  1744,  1745,  1771
  1825,  1830,  1832,  1837,  1845,  1846,  1850,  1851,  1854,  1855,  1858,  1859,  1885,  1939,  1944,  1946
  1951,  1959,  1960,  1964,  1965,  1968,  1969,  1972,  1973,  1999,  2053,  2058,  2060,  2065,  2073,  2074
  2078,  2079,  2082,  2083,  2086,  2087,  2113,  2167,  2172,  2174,  2179,  2187,  2188,  2192,  2193,  2196
  2197,  2200,  2201,  2227,  2281,  2286,  2288,  2293,  2301,  2302,  2306,  2307,  2310,  2311,  2314,  2315
  2341,  2395,  2400,  2402,  2407,  2415,  2416,  2420,  2421,  2424,  2425,  2428,  2429,  2455,  2509,  2514
  2516,  2521,  2529,  2530,  2534,  2535,  2538,  2539,  2542,  2543,  2569,  2623,  2628,  2630,  2635,  2643
  2644,  2648,  2649,  2652,  2653,  2656,  2657,  2683,  2737,  2742,  2744,  2749,  2757,  2758,  2762,  2763
** ... 76 like lines cut
*Nset, nset=Set-top, instance=Biomass-1
    9,   10,   11,   12,  557,  558,  559,  560,  561,  562,  563,  564,  565,  566,  567,  568
  571,  572,  573,  574,  575,  576,  577,  578,  579,  580,  581,  582,  583,  584,  585,  586
  587,  588,  589,  590,  591,  592,  593,  594,  595,  596,  597,  598,  599,  600,  601,  602
  603,  604,  605,  606,  607,  608,  609,  610,  611,  612,  613,  614,  615,  616,  617,  618
  619,  620,  621,  622,  623,  624,  625,  626,  627,  628,  629,  630,  631,  632,  633,  634
  635,  636,  637,  638,  639,  640,  641,  642,  643,  644,  645,  646,  647,  648,  649,  650
  651,  652,  653,  654,  655,  656,  657,  658,  659,  660,  661,  662,  663,  664,  665,  666
  667,  668,  669,  670,  671,  672,  673,  674,  675,  676,  677,  678,  679,  680,  681,  682
  683,  684,  685,  686,  689,  690,  691,  692,  693,  694,  695,  696,  697,  698,  699,  700
  705,  706,  707,  708,  709,  710,  711,  712,  713,  714,  715,  716,  717,  718,  719,  720
  721,  722,  723,  724,  725,  726,  727,  728,  729,  730,  731,  732,  733,  734,  735,  736
  737,  738,  739,  740,  741,  742,  743,  744,  745,  746,  747,  748,  749,  750,  751,  752
  753,  754,  755,  756,  757,  758,  759,  760,  761,  762,  763,  764,  765,  766,  767,  768
  769,  770,  771,  772,  773,  774,  775,  776,  777,  778,  779,  780,  781,  782,  783,  784
  785,  786,  787,  788,  789,  790,  791,  792,  793,  794,  795,  796,  797,  798,  799,  800
  801,  802,  803,  804,  805,  806,  807,  808,  809,  810,  811,  812,  813,  814,  815,  816
  817,  818,  819,  820, 5589, 5590, 5591, 5592, 5593, 5594, 5595, 5596, 5597, 5598, 5599, 5600
 5601, 5602, 5603, 5604, 5605, 5606, 5607, 5608, 5609, 5610, 5611, 5612, 5613, 5614, 5615, 5616
 5617, 5618, 5619, 5620, 5621, 5622, 5623, 5624, 5625, 5626, 5627, 5628, 5629, 5630, 5631, 5632
 5633, 5634, 5635, 5636, 5637, 5638, 5639, 5640, 5641, 5642, 5643, 5644, 5645, 5646, 5647, 5648
** ... 84 like lines cut
*Elset, elset=Set-top, instance=Biomass-1
 13468, 13469, 13470, 13482, 13485, 13489, 13490, 13491, 13492, 13493, 13494, 13495, 13496, 13512, 13513, 13514
 13526, 13529, 13533, 13534, 13535, 13536, 13537, 13538, 13539, 13540, 13556, 13557, 13558, 13570, 13573, 13577
 13578, 13579, 13580, 13581, 13582, 13583, 13584, 13600, 13601, 13602, 13614, 13617, 13621, 13622, 13623, 13624
 13625, 13626, 13627, 13628, 13644, 13645, 13646, 13658, 13661, 13665, 13666, 13667, 13668, 13669, 13670, 13671
 13672, 13688, 13689, 13690, 13702, 13705, 13709, 13710, 13711, 13712, 13713, 13714, 13715, 13716, 13732, 13733
 13734, 13746, 13749, 13753, 13754, 13755, 13756, 13757, 13758, 13759, 13760, 13776, 13777, 13778, 13790, 13793
 13797, 13798, 13799, 13800, 13801, 13802, 13803, 13804, 13820, 13821, 13822, 13834, 13837, 13841, 13842, 13843
 13844, 13845, 13846, 13847, 13848, 13864, 13865, 13866, 13878, 13881, 13885, 13886, 13887, 13888, 13889, 13890
 13891, 13892, 13908, 13909, 13910, 13922, 13925, 13929, 13930, 13931, 13932, 13933, 13934, 13935, 13936, 13952
 13953, 13954, 13966, 13969, 13973, 13974, 13975, 13976, 13977, 13978, 13979, 13980, 13996, 13997, 13998, 14010
 14013, 14017, 14018, 14019, 14020, 14021, 14022, 14023, 14024, 14040, 14041, 14042, 14054, 14057, 14061, 14062
 14063, 14064, 14065, 14066, 14067, 14068, 14084, 14085, 14086, 14098, 14101, 14105, 14106, 14107, 14108, 14109
 14110, 14111, 14112, 14128, 14129, 14130, 14142, 14145, 14149, 14150, 14151, 14152, 14153, 14154, 14155, 14156
 14172, 14173, 14174, 14186, 14189, 14193, 14194, 14195, 14196, 14197, 14198, 14199, 14200, 14216, 14217, 14218
 14230, 14233, 14237, 14238, 14239, 14240, 14241, 14242, 14243, 14244, 14260, 14261, 14262, 14274, 14277, 14281
 14282, 14283, 14284, 14285, 14286, 14287, 14288, 14304, 14305, 14306, 14318, 14321, 14325, 14326, 14327, 14328
 14329, 14330, 14331, 14332, 14348, 14349, 14350, 14362, 14365, 14369, 14370, 14371, 14372, 14373, 14374, 14375
 14376, 14392, 14393, 14394, 14406, 14409, 14413, 14414, 14415, 14416, 14417, 14418, 14419, 14420, 14436, 14437
 14438, 14450, 14453, 14457, 14458, 14459, 14460, 14461, 14462, 14463, 14464, 14480, 14481, 14482, 14494, 14497
 14501, 14502, 14503, 14504, 14505, 14506, 14507, 14508, 14524, 14525, 14526, 14538, 14541, 14545, 14546, 14547
** ... 76 like lines cut
*Elset, elset=_Surf-slave-bottom_S5, internal, instance=Biomass-1
     1,    13,    21,    26,    27,    30,    31,    35,    61,   115,   127,   135,   140,   141,   144,   145
   149,   175,   229,   241,   249,   254,   255,   258,   259,   263,   289,   343,   355,   363,   368,   369
   372,   373,   377,   403,   457,   469,   477,   482,   483,   486,   487,   491,   517,   571,   583,   591
   596,   597,   600,   601,   605,   631,   685,   697,   705,   710,   711,   714,   715,   719,   745,   799
   811,   819,   824,   825,   828,   829,   833,   859,   913,   925,   933,   938,   939,   942,   943,   947
   973,  1027,  1039,  1047,  1052,  1053,  1056,  1057,  1061,  1087,  1141,  1153,  1161,  1166,  1167,  1170
  1171,  1175,  1201,  1255,  1267,  1275,  1280,  1281,  1284,  1285,  1289,  1315,  1369,  1381,  1389,  1394
  1395,  1398,  1399,  1403,  1429,  1483,  1495,  1503,  1508,  1509,  1512,  1513,  1517,  1543,  1597,  1609
  1617,  1622,  1623,  1626,  1627,  1631,  1657,  1711,  1723,  1731,  1736,  1737,  1740,  1741,  1745,  1771
  1825,  1837,  1845,  1850,  1851,  1854,  1855,  1859,  1885,  1939,  1951,  1959,  1964,  1965,  1968,  1969
  1973,  1999,  2053,  2065,  2073,  2078,  2079,  2082,  2083,  2087,  2113,  2167,  2179,  2187,  2192,  2193
  2196,  2197,  2201,  2227,  2281,  2293,  2301,  2306,  2307,  2310,  2311,  2315,  2341,  2395,  2407,  2415
  2420,  2421,  2424,  2425,  2429,  2455,  2509,  2521,  2529,  2534,  2535,  2538,  2539,  2543,  2569,  2623
  2635,  2643,  2648,  2649,  2652,  2653,  2657,  2683,  2737,  2749,  2757,  2762,  2763,  2766,  2767,  2771
  2797,  2851,  2863,  2871,  2876,  2877,  2880,  2881,  2885,  2911,  2965,  2977,  2985,  2990,  2991,  2994
  2995,  2999,  3025,  3079,  3091,  3099,  3104,  3105,  3108,  3109,  3113,  3139,  3193,  3205,  3213,  3218
  3219,  3222,  3223,  3227,  3253,  3307,  3319,  3327,  3332,  3333,  3336,  3337,  3341,  3367,  3421,  3433
  3441,  3446,  3447,  3450,  3451,  3455,  3481,  3535,  3547,  3555,  3560,  3561,  3564,  3565,  3569,  3595
  3649,  3661,  3669,  3674,  3675,  3678,  3679,  3683,  3709,  3763,  3775,  3783,  3788,  3789,  3792,  3793
  3797,  3823,  3877,  3889,  3897,  3902,  3903,  3906,  3907,  3911,  3937,  3991,  4003,  4011,  4016,  4017
** ... 47 like lines cut
*Elset, elset=_Surf-slave-bottom_S4, internal, instance=Biomass-1, generate
     6,  13344,    114
*Elset, elset=_Surf-slave-bottom_S6, internal, instance=Biomass-1, generate
     8,  13346,    114
*Elset, elset=_Surf-slave-bottom_S3, internal, instance=Biomass-1
    22,    34,   136,   148,   250,   262,   364,   376,   478,   490,   592,   604,   706,   718,   820,   832
   934,   946,  1048,  1060,  1162,  1174,  1276,  1288,  1390,  1402,  1504,  1516,  1618,  1630,  1732,  1744
  1846,  1858,  1960,  1972,  2074,  2086,  2188,  2200,  2302,  2314,  2416,  2428,  2530,  2542,  2644,  2656
  2758,  2770,  2872,  2884,  2986,  2998,  3100,  3112,  3214,  3226,  3328,  3340,  3442,  3454,  3556,  3568
  3670,  3682,  3784,  3796,  3898,  3910,  4012,  4024,  4126,  4138,  4240,  4252,  4354,  4366,  4468,  4480
  4582,  4594,  4696,  4708,  4810,  4822,  4924,  4936,  5038,  5050,  5152,  5164,  5266,  5278,  5380,  5392
  5494,  5506,  5608,  5620,  5722,  5734,  5836,  5848,  5950,  5962,  6064,  6076,  6178,  6190,  6292,  6304
  6406,  6418,  6520,  6532,  6634,  6646,  6748,  6760,  6862,  6874,  6976,  6988,  7090,  7102,  7204,  7216
  7318,  7330,  7432,  7444,  7546,  7558,  7660,  7672,  7774,  7786,  7888,  7900,  8002,  8014,  8116,  8128
  8230,  8242,  8344,  8356,  8458,  8470,  8572,  8584,  8686,  8698,  8800,  8812,  8914,  8926,  9028,  9040
  9142,  9154,  9256,  9268,  9370,  9382,  9484,  9496,  9598,  9610,  9712,  9724,  9826,  9838,  9940,  9952
 10054, 10066, 10168, 10180, 10282, 10294, 10396, 10408, 10510, 10522, 10624, 10636, 10738, 10750, 10852, 10864
 10966, 10978, 11080, 11092, 11194, 11206, 11308, 11320, 11422, 11434, 11536, 11548, 11650, 11662, 11764, 11776
 11878, 11890, 11992, 12004, 12106, 12118, 12220, 12232, 12334, 12346, 12448, 12460, 12562, 12574, 12676, 12688
 12790, 12802, 12904, 12916, 13018, 13030, 13132, 13144, 13246, 13258, 13360, 13372
*Surface, type=ELEMENT, name=Surf-slave-bottom
_Surf-slave-bottom_S5, S5
_Surf-slave-bottom_S4, S4
_Surf-slave-bottom_S6, S6
_Surf-slave-bottom_S3, S3
*Elset, elset=_Surf-slave-inner_S4, internal, instance=Biomass-1
     9,    10,    23,    50,   123,   124,   137,   164,   237,   238,   251,   278,   351,   352,   365,   392
   465,   466,   479,   506,   579,   580,   593,   620,   693,   694,   707,   734,   807,   808,   821,   848
   921,   922,   935,   962,  1035,  1036,  1049,  1076,  1149,  1150,  1163,  1190,  1263,  1264,  1277,  1304
  1377,  1378,  1391,  1418,  1491,  1492,  1505,  1532,  1605,  1606,  1619,  1646,  1719,  1720,  1733,  1760
  1833,  1834,  1847,  1874,  1947,  1948,  1961,  1988,  2061,  2062,  2075,  2102,  2175,  2176,  2189,  2216
  2289,  2290,  2303,  2330,  2403,  2404,  2417,  2444,  2517,  2518,  2531,  2558,  2631,  2632,  2645,  2672
  2745,  2746,  2759,  2786,  2859,  2860,  2873,  2900,  2973,  2974,  2987,  3014,  3087,  3088,  3101,  3128
  3201,  3202,  3215,  3242,  3315,  3316,  3329,  3356,  3429,  3430,  3443,  3470,  3543,  3544,  3557,  3584
  3657,  3658,  3671,  3698,  3771,  3772,  3785,  3812,  3885,  3886,  3899,  3926,  3999,  4000,  4013,  4040
  4113,  4114,  4127,  4154,  4227,  4228,  4241,  4268,  4341,  4342,  4355,  4382,  4455,  4456,  4469,  4496
  4569,  4570,  4583,  4610,  4683,  4684,  4697,  4724,  4797,  4798,  4811,  4838,  4911,  4912,  4925,  4952
  5025,  5026,  5039,  5066,  5139,  5140,  5153,  5180,  5253,  5254,  5267,  5294,  5367,  5368,  5381,  5408
  5481,  5482,  5495,  5522,  5595,  5596,  5609,  5636,  5709,  5710,  5723,  5750,  5823,  5824,  5837,  5864
  5937,  5938,  5951,  5978,  6051,  6052,  6065,  6092,  6165,  6166,  6179,  6206,  6279,  6280,  6293,  6320
  6393,  6394,  6407,  6434,  6507,  6508,  6521,  6548,  6621,  6622,  6635,  6662,  6735,  6736,  6749,  6776
  6849,  6850,  6863,  6890,  6963,  6964,  6977,  7004,  7077,  7078,  7091,  7118,  7191,  7192,  7205,  7232
  7305,  7306,  7319,  7346,  7419,  7420,  7433,  7460,  7533,  7534,  7547,  7574,  7647,  7648,  7661,  7688
  7761,  7762,  7775,  7802,  7875,  7876,  7889,  7916,  7989,  7990,  8003,  8030,  8103,  8104,  8117,  8144
  8217,  8218,  8231,  8258,  8331,  8332,  8345,  8372,  8445,  8446,  8459,  8486,  8559,  8560,  8573,  8600
  8673,  8674,  8687,  8714,  8787,  8788,  8801,  8828,  8901,  8902,  8915,  8942,  9015,  9016,  9029,  9056
** ... 32 like lines cut
*Elset, elset=_Surf-slave-inner_S6, internal, instance=Biomass-1
    21,    25,    44,    52,   135,   139,   158,   166,   249,   253,   272,   280,   363,   367,   386,   394
   477,   481,   500,   508,   591,   595,   614,   622,   705,   709,   728,   736,   819,   823,   842,   850
   933,   937,   956,   964,  1047,  1051,  1070,  1078,  1161,  1165,  1184,  1192,  1275,  1279,  1298,  1306
  1389,  1393,  1412,  1420,  1503,  1507,  1526,  1534,  1617,  1621,  1640,  1648,  1731,  1735,  1754,  1762
  1845,  1849,  1868,  1876,  1959,  1963,  1982,  1990,  2073,  2077,  2096,  2104,  2187,  2191,  2210,  2218
  2301,  2305,  2324,  2332,  2415,  2419,  2438,  2446,  2529,  2533,  2552,  2560,  2643,  2647,  2666,  2674
  2757,  2761,  2780,  2788,  2871,  2875,  2894,  2902,  2985,  2989,  3008,  3016,  3099,  3103,  3122,  3130
  3213,  3217,  3236,  3244,  3327,  3331,  3350,  3358,  3441,  3445,  3464,  3472,  3555,  3559,  3578,  3586
  3669,  3673,  3692,  3700,  3783,  3787,  3806,  3814,  3897,  3901,  3920,  3928,  4011,  4015,  4034,  4042
  4125,  4129,  4148,  4156,  4239,  4243,  4262,  4270,  4353,  4357,  4376,  4384,  4467,  4471,  4490,  4498
  4581,  4585,  4604,  4612,  4695,  4699,  4718,  4726,  4809,  4813,  4832,  4840,  4923,  4927,  4946,  4954
  5037,  5041,  5060,  5068,  5151,  5155,  5174,  5182,  5265,  5269,  5288,  5296,  5379,  5383,  5402,  5410
  5493,  5497,  5516,  5524,  5607,  5611,  5630,  5638,  5721,  5725,  5744,  5752,  5835,  5839,  5858,  5866
  5949,  5953,  5972,  5980,  6063,  6067,  6086,  6094,  6177,  6181,  6200,  6208,  6291,  6295,  6314,  6322
  6405,  6409,  6428,  6436,  6519,  6523,  6542,  6550,  6633,  6637,  6656,  6664,  6747,  6751,  6770,  6778
  6861,  6865,  6884,  6892,  6975,  6979,  6998,  7006,  7089,  7093,  7112,  7120,  7203,  7207,  7226,  7234
  7317,  7321,  7340,  7348,  7431,  7435,  7454,  7462,  7545,  7549,  7568,  7576,  7659,  7663,  7682,  7690
  7773,  7777,  7796,  7804,  7887,  7891,  7910,  7918,  8001,  8005,  8024,  8032,  8115,  8119,  8138,  8146
  8229,  8233,  8252,  8260,  8343,  8347,  8366,  8374,  8457,  8461,  8480,  8488,  8571,  8575,  8594,  8602
  8685,  8689,  8708,  8716,  8799,  8803,  8822,  8830,  8913,  8917,  8936,  8944,  9027,  9031,  9050,  9058
** ... 10 like lines cut
*Surface, type=ELEMENT, name=Surf-slave-inner
_Surf-slave-inner_S4, S4
_Surf-slave-inner_S6, S6
*Elset, elset=_Surf-slave-outer_S3, internal, instance=Biomass-1, generate
 13464,  18612,     44
*Elset, elset=_Surf-slave-outer_S4, internal, instance=Biomass-1
     2,     5,    26,    38,    39,   116,   119,   140,   152,   153,   230,   233,   254,   266,   267,   344
   347,   368,   380,   381,   458,   461,   482,   494,   495,   572,   575,   596,   608,   609,   686,   689
   710,   722,   723,   800,   803,   824,   836,   837,   914,   917,   938,   950,   951,  1028,  1031,  1052
  1064,  1065,  1142,  1145,  1166,  1178,  1179,  1256,  1259,  1280,  1292,  1293,  1370,  1373,  1394,  1406
  1407,  1484,  1487,  1508,  1520,  1521,  1598,  1601,  1622,  1634,  1635,  1712,  1715,  1736,  1748,  1749
  1826,  1829,  1850,  1862,  1863,  1940,  1943,  1964,  1976,  1977,  2054,  2057,  2078,  2090,  2091,  2168
  2171,  2192,  2204,  2205,  2282,  2285,  2306,  2318,  2319,  2396,  2399,  2420,  2432,  2433,  2510,  2513
  2534,  2546,  2547,  2624,  2627,  2648,  2660,  2661,  2738,  2741,  2762,  2774,  2775,  2852,  2855,  2876
  2888,  2889,  2966,  2969,  2990,  3002,  3003,  3080,  3083,  3104,  3116,  3117,  3194,  3197,  3218,  3230
  3231,  3308,  3311,  3332,  3344,  3345,  3422,  3425,  3446,  3458,  3459,  3536,  3539,  3560,  3572,  3573
  3650,  3653,  3674,  3686,  3687,  3764,  3767,  3788,  3800,  3801,  3878,  3881,  3902,  3914,  3915,  3992
  3995,  4016,  4028,  4029,  4106,  4109,  4130,  4142,  4143,  4220,  4223,  4244,  4256,  4257,  4334,  4337
  4358,  4370,  4371,  4448,  4451,  4472,  4484,  4485,  4562,  4565,  4586,  4598,  4599,  4676,  4679,  4700
  4712,  4713,  4790,  4793,  4814,  4826,  4827,  4904,  4907,  4928,  4940,  4941,  5018,  5021,  5042,  5054
  5055,  5132,  5135,  5156,  5168,  5169,  5246,  5249,  5270,  5282,  5283,  5360,  5363,  5384,  5396,  5397
  5474,  5477,  5498,  5510,  5511,  5588,  5591,  5612,  5624,  5625,  5702,  5705,  5726,  5738,  5739,  5816
  5819,  5840,  5852,  5853,  5930,  5933,  5954,  5966,  5967,  6044,  6047,  6068,  6080,  6081,  6158,  6161
  6182,  6194,  6195,  6272,  6275,  6296,  6308,  6309,  6386,  6389,  6410,  6422,  6423,  6500,  6503,  6524
  6536,  6537,  6614,  6617,  6638,  6650,  6651,  6728,  6731,  6752,  6764,  6765,  6842,  6845,  6866,  6878
  6879,  6956,  6959,  6980,  6992,  6993,  7070,  7073,  7094,  7106,  7107,  7184,  7187,  7208,  7220,  7221
** ... 32 like lines cut
*Elset, elset=_Surf-slave-outer_S6, internal, instance=Biomass-1
     3,    37,    42,   117,   151,   156,   231,   265,   270,   345,   379,   384,   459,   493,   498,   573
   607,   612,   687,   721,   726,   801,   835,   840,   915,   949,   954,  1029,  1063,  1068,  1143,  1177
  1182,  1257,  1291,  1296,  1371,  1405,  1410,  1485,  1519,  1524,  1599,  1633,  1638,  1713,  1747,  1752
  1827,  1861,  1866,  1941,  1975,  1980,  2055,  2089,  2094,  2169,  2203,  2208,  2283,  2317,  2322,  2397
  2431,  2436,  2511,  2545,  2550,  2625,  2659,  2664,  2739,  2773,  2778,  2853,  2887,  2892,  2967,  3001
  3006,  3081,  3115,  3120,  3195,  3229,  3234,  3309,  3343,  3348,  3423,  3457,  3462,  3537,  3571,  3576
  3651,  3685,  3690,  3765,  3799,  3804,  3879,  3913,  3918,  3993,  4027,  4032,  4107,  4141,  4146,  4221
  4255,  4260,  4335,  4369,  4374,  4449,  4483,  4488,  4563,  4597,  4602,  4677,  4711,  4716,  4791,  4825
  4830,  4905,  4939,  4944,  5019,  5053,  5058,  5133,  5167,  5172,  5247,  5281,  5286,  5361,  5395,  5400
  5475,  5509,  5514,  5589,  5623,  5628,  5703,  5737,  5742,  5817,  5851,  5856,  5931,  5965,  5970,  6045
  6079,  6084,  6159,  6193,  6198,  6273,  6307,  6312,  6387,  6421,  6426,  6501,  6535,  6540,  6615,  6649
  6654,  6729,  6763,  6768,  6843,  6877,  6882,  6957,  6991,  6996,  7071,  7105,  7110,  7185,  7219,  7224
  7299,  7333,  7338,  7413,  7447,  7452,  7527,  7561,  7566,  7641,  7675,  7680,  7755,  7789,  7794,  7869
  7903,  7908,  7983,  8017,  8022,  8097,  8131,  8136,  8211,  8245,  8250,  8325,  8359,  8364,  8439,  8473
  8478,  8553,  8587,  8592,  8667,  8701,  8706,  8781,  8815,  8820,  8895,  8929,  8934,  9009,  9043,  9048
  9123,  9157,  9162,  9237,  9271,  9276,  9351,  9385,  9390,  9465,  9499,  9504,  9579,  9613,  9618,  9693
  9727,  9732,  9807,  9841,  9846,  9921,  9955,  9960, 10035, 10069, 10074, 10149, 10183, 10188, 10263, 10297
 10302, 10377, 10411, 10416, 10491, 10525, 10530, 10605, 10639, 10644, 10719, 10753, 10758, 10833, 10867, 10872
 10947, 10981, 10986, 11061, 11095, 11100, 11175, 11209, 11214, 11289, 11323, 11328, 11403, 11437, 11442, 11517
 11551, 11556, 11631, 11665, 11670, 11745, 11779, 11784, 11859, 11893, 11898, 11973, 12007, 12012, 12087, 12121
** ... 10 like lines cut
*Elset, elset=_Surf-slave-outer_S5, internal, instance=Biomass-1, generate
 13467,  18615,     44
*Surface, type=ELEMENT, name=Surf-slave-outer
_Surf-slave-outer_S3, S3
_Surf-slave-outer_S4, S4
_Surf-slave-outer_S6, S6
_Surf-slave-outer_S5, S5
*Elset, elset=_Surf-slave-top_S5, internal, instance=Biomass-1, generate
 13468,  18616,     44
*Elset, elset=_Surf-slave-top_S6, internal, instance=Biomass-1
 13469, 13470, 13513, 13514, 13557, 13558, 13601, 13602, 13645, 13646, 13689, 13690, 13733, 13734, 13777, 13778
 13821, 13822, 13865, 13866, 13909, 13910, 13953, 13954, 13997, 13998, 14041, 14042, 14085, 14086, 14129, 14130
 14173, 14174, 14217, 14218, 14261, 14262, 14305, 14306, 14349, 14350, 14393, 14394, 14437, 14438, 14481, 14482
 14525, 14526, 14569, 14570, 14613, 14614, 14657, 14658, 14701, 14702, 14745, 14746, 14789, 14790, 14833, 14834
 14877, 14878, 14921, 14922, 14965, 14966, 15009, 15010, 15053, 15054, 15097, 15098, 15141, 15142, 15185, 15186
 15229, 15230, 15273, 15274, 15317, 15318, 15361, 15362, 15405, 15406, 15449, 15450, 15493, 15494, 15537, 15538
 15581, 15582, 15625, 15626, 15669, 15670, 15713, 15714, 15757, 15758, 15801, 15802, 15845, 15846, 15889, 15890
 15933, 15934, 15977, 15978, 16021, 16022, 16065, 16066, 16109, 16110, 16153, 16154, 16197, 16198, 16241, 16242
 16285, 16286, 16329, 16330, 16373, 16374, 16417, 16418, 16461, 16462, 16505, 16506, 16549, 16550, 16593, 16594
 16637, 16638, 16681, 16682, 16725, 16726, 16769, 16770, 16813, 16814, 16857, 16858, 16901, 16902, 16945, 16946
 16989, 16990, 17033, 17034, 17077, 17078, 17121, 17122, 17165, 17166, 17209, 17210, 17253, 17254, 17297, 17298
 17341, 17342, 17385, 17386, 17429, 17430, 17473, 17474, 17517, 17518, 17561, 17562, 17605, 17606, 17649, 17650
 17693, 17694, 17737, 17738, 17781, 17782, 17825, 17826, 17869, 17870, 17913, 17914, 17957, 17958, 18001, 18002
 18045, 18046, 18089, 18090, 18133, 18134, 18177, 18178, 18221, 18222, 18265, 18266, 18309, 18310, 18353, 18354
 18397, 18398, 18441, 18442, 18485, 18486, 18529, 18530, 18573, 18574, 18617, 18618
*Elset, elset=_Surf-slave-top_S3, internal, instance=Biomass-1, generate
 13482,  18630,     44
*Elset, elset=_Surf-slave-top_S4, internal, instance=Biomass-1
 13485, 13489, 13490, 13491, 13492, 13493, 13494, 13495, 13496, 13529, 13533, 13534, 13535, 13536, 13537, 13538
 13539, 13540, 13573, 13577, 13578, 13579, 13580, 13581, 13582, 13583, 13584, 13617, 13621, 13622, 13623, 13624
 13625, 13626, 13627, 13628, 13661, 13665, 13666, 13667, 13668, 13669, 13670, 13671, 13672, 13705, 13709, 13710
 13711, 13712, 13713, 13714, 13715, 13716, 13749, 13753, 13754, 13755, 13756, 13757, 13758, 13759, 13760, 13793
 13797, 13798, 13799, 13800, 13801, 13802, 13803, 13804, 13837, 13841, 13842, 13843, 13844, 13845, 13846, 13847
 13848, 13881, 13885, 13886, 13887, 13888, 13889, 13890, 13891, 13892, 13925, 13929, 13930, 13931, 13932, 13933
 13934, 13935, 13936, 13969, 13973, 13974, 13975, 13976, 13977, 13978, 13979, 13980, 14013, 14017, 14018, 14019
 14020, 14021, 14022, 14023, 14024, 14057, 14061, 14062, 14063, 14064, 14065, 14066, 14067, 14068, 14101, 14105
 14106, 14107, 14108, 14109, 14110, 14111, 14112, 14145, 14149, 14150, 14151, 14152, 14153, 14154, 14155, 14156
 14189, 14193, 14194, 14195, 14196, 14197, 14198, 14199, 14200, 14233, 14237, 14238, 14239, 14240, 14241, 14242
 14243, 14244, 14277, 14281, 14282, 14283, 14284, 14285, 14286, 14287, 14288, 14321, 14325, 14326, 14327, 14328
 14329, 14330, 14331, 14332, 14365, 14369, 14370, 14371, 14372, 14373, 14374, 14375, 14376, 14409, 14413, 14414
 14415, 14416, 14417, 14418, 14419, 14420, 14453, 14457, 14458, 14459, 14460, 14461, 14462, 14463, 14464, 14497
 14501, 14502, 14503, 14504, 14505, 14506, 14507, 14508, 14541, 14545, 14546, 14547, 14548, 14549, 14550, 14551
 14552, 14585, 14589, 14590, 14591, 14592, 14593, 14594, 14595, 14596, 14629, 14633, 14634, 14635, 14636, 14637
 14638, 14639, 14640, 14673, 14677, 14678, 14679, 14680, 14681, 14682, 14683, 14684, 14717, 14721, 14722, 14723
 14724, 14725, 14726, 14727, 14728, 14761, 14765, 14766, 14767, 14768, 14769, 14770, 14771, 14772, 14805, 14809
 14810, 14811, 14812, 14813, 14814, 14815, 14816, 14849, 14853, 14854, 14855, 14856, 14857, 14858, 14859, 14860
 14893, 14897, 14898, 14899, 14900, 14901, 14902, 14903, 14904, 14937, 14941, 14942, 14943, 14944, 14945, 14946
 14947, 14948, 14981, 14985, 14986, 14987, 14988, 14989, 14990, 14991, 14992, 15025, 15029, 15030, 15031, 15032
** ... 47 like lines cut
*Surface, type=ELEMENT, name=Surf-slave-top
_Surf-slave-top_S5, S5
_Surf-slave-top_S6, S6
_Surf-slave-top_S4, S4
_Surf-slave-top_S3, S3
*Nset, nset="_T-Datum csys-1", internal
Container-bottom-1.RP, 
Container-inner-1.RP, 
Container-outer-1.RP, 
Container-top-1.RP, 
*Transform, nset="_T-Datum csys-1", type=C
          0.,           0.,           0.,           0.,           1.,           0.
** Constraint: Constraint-2
*Tie, name=Constraint-2, adjust=yes
Surf-slave-bottom, Container-bottom-1.Surf-master-bottom
** Constraint: Constraint-3
*Tie, name=Constraint-3, adjust=yes
Surf-slave-top, Container-top-1.Surf-master-top
*End Assembly
** 
** ELEMENT CONTROLS
** 
*Section Controls, name=EC-1, DISTORTION CONTROL=NO, hourglass=COMBINED
1., 1., 1.
*Amplitude, name=Amp-g-smooth
             0.,              0.,              1.,              1.
*Amplitude, name=smooth-pressure, time=TOTAL TIME, definition=SMOOTH STEP
             0.,              0.,              1.,              0.,             4.5,              1.,              5.,              1.
*Amplitude, name=unload, definition=SMOOTH STEP
             0.,              0.,              1.,              1.
** 
** MATERIALS
** 
*Material, name=MDPC_LALM_pine
*Cap Plasticity, dependencies=1
 78.26994923, 53.9352,    0.12,      0.,    0.01,      1., ,      1.
 184.2605055, 53.9352,    0.15,      0.,    0.01,      1., , 1.05013
 419.0703532, 53.9352,    0.17,      0.,    0.01,      1., , 1.08599
 828.3569627, 53.9352,    0.19,      0.,    0.01,      1., ,   1.121
 1312.652274, 53.9352,    0.21,      0.,    0.01,      1., , 1.14699
 2026.86556,  53.9352,    0.21,      0.,    0.01,      1., , 1.16843
*Cap Hardening
  510.,     0.
  550.,  0.015
  630.,   0.03
  700.,  0.042
 1600.,  0.054
 3200., 0.0605
10000.,  0.061
*Density
 227.9,
*Depvar
      4,
*Elastic, dependencies=1
     132567.,    0.04, ,      1.
     480050.,    0.04, , 1.05013
     715051.,    0.04, , 1.08599
 1.86258e+06,    0.04, ,   1.121
 3.33403e+06,    0.04, , 1.14699
   5.161e+06,    0.04, , 1.16843
** 
** INTERACTION PROPERTIES
** 
*Surface Interaction, name=Separation
*Friction
 0.2675,
*Surface Behavior, pressure-overclosure=HARD
** 
** BOUNDARY CONDITIONS
** 
** Name: BC-1 Type: Displacement/Rotation
*Boundary
Container-bottom-1.RP, 1, 1
Container-bottom-1.RP, 2, 2
Container-bottom-1.RP, 3, 3
Container-bottom-1.RP, 4, 4
Container-bottom-1.RP, 5, 5
Container-bottom-1.RP, 6, 6
** Name: BC-2 Type: Displacement/Rotation
*Boundary
Container-inner-1.RP, 1, 1
Container-inner-1.RP, 2, 2
Container-inner-1.RP, 3, 3
Container-inner-1.RP, 4, 4
Container-inner-1.RP, 5, 5
Container-inner-1.RP, 6, 6
** Name: BC-3 Type: Displacement/Rotation
*Boundary
Container-outer-1.RP, 1, 1
Container-outer-1.RP, 2, 2
Container-outer-1.RP, 3, 3
Container-outer-1.RP, 4, 4
Container-outer-1.RP, 5, 5
Container-outer-1.RP, 6, 6
** Name: Fix_u2 Type: Displacement/Rotation
*Boundary
Container-top-1.RP, 1, 1
Container-top-1.RP, 2, 2
Container-top-1.RP, 4, 4
Container-top-1.RP, 5, 5
Container-top-1.RP, 6, 6
** ----------------------------------------------------------------
** 
** STEP: Compression
** 
*Step, name=Compression, nlgeom=YES
*Dynamic, Explicit
, 5.
*Bulk Viscosity
0.06, 1.2
*Adaptive Mesh Controls, name=Ada-1
1., 0., 0.
** 
** LOADS
** 
** Name: Gravity   Type: Body force
*Dload, amplitude=Amp-g-smooth
Biomass-1.Set-1, BY, -9.81
** Name: Normal_100   Type: Concentrated force
*Cload, op=NEW, amplitude=smooth-pressure
Container-top-1.RP, 2, 0.
Container-top-1.RP, 3, -35.3429
** 
** INTERACTIONS
** 
** Interaction: Int-1
*Contact Pair, interaction=Separation, mechanical constraint=KINEMATIC, cpset=Int-1
Container-inner-1.Surf-master-inner, Surf-slave-inner
** Interaction: Int-2
*Contact Pair, interaction=Separation, mechanical constraint=KINEMATIC, cpset=Int-2
Container-outer-1.Surf-master-outer, Surf-slave-outer
** 
** OUTPUT REQUESTS
** 
*Restart, write, number interval=1, time marks=NO
** 
** FIELD OUTPUT: F-Output-1
** 
*Output, field, time interval=0.1, time marks=YES
*Node Output, GLOBAL=NO
RF, U
*Element Output, directions=YES
DENSITY, LE, PE, PEEQ, S
*Contact Output
CSTRESS, 
** 
** HISTORY OUTPUT: H-Output-1
** 
*Output, history, variable=PRESELECT
*End Step
** ----------------------------------------------------------------
** 
** STEP: Shear
** 
*Step, name=Shear, nlgeom=YES
*Dynamic, Explicit
, 20.
*Bulk Viscosity
0.06, 1.2
** 
** BOUNDARY CONDITIONS
** 
** Name: BC-1 Type: Displacement/Rotation
*Boundary, op=NEW
Container-bottom-1.RP, 1, 1
Container-bottom-1.RP, 2, 2
Container-bottom-1.RP, 3, 3
Container-bottom-1.RP, 4, 4
Container-bottom-1.RP, 5, 5
** Name: BC-2 Type: Displacement/Rotation
*Boundary, op=NEW
Container-inner-1.RP, 1, 1
Container-inner-1.RP, 2, 2
Container-inner-1.RP, 3, 3
Container-inner-1.RP, 4, 4
Container-inner-1.RP, 5, 5
** Name: BC-3 Type: Displacement/Rotation
*Boundary, op=NEW
Container-outer-1.RP, 1, 1
Container-outer-1.RP, 2, 2
Container-outer-1.RP, 3, 3
Container-outer-1.RP, 4, 4
Container-outer-1.RP, 5, 5
** Name: Fix_u2 Type: Displacement/Rotation
*Boundary, op=NEW
Container-top-1.RP, 1, 1
Container-top-1.RP, 2, 2
Container-top-1.RP, 4, 4
Container-top-1.RP, 5, 5
Container-top-1.RP, 6, 6
** Name: Rotate-B Type: Velocity/Angular velocity
*Boundary, op=NEW, type=VELOCITY
Container-bottom-1.RP, 6, 6, 0.01
** Name: Rotate-IR Type: Velocity/Angular velocity
*Boundary, op=NEW, type=VELOCITY
Container-inner-1.RP, 6, 6, 0.01
** Name: Rotate-OR Type: Velocity/Angular velocity
*Boundary, op=NEW, type=VELOCITY
Container-outer-1.RP, 6, 6, 0.01
*Adaptive Mesh, elset=Biomass-1.Set-ale, controls=Ada-1, op=NEW
** 
** LOADS
** 
** Name: Gravity   Type: Body force
*Dload
** Name: Normal_100   Type: Concentrated force
*Cload, op=NEW
Container-top-1.RP, 2, 0.
Container-top-1.RP, 3, -35.3429
** 
** OUTPUT REQUESTS
** 
*Restart, write, number interval=1, time marks=NO
** 
** FIELD OUTPUT: F-Output-1
** 
*Output, field, time interval=0.1, time marks=YES
*Node Output, GLOBAL=NO
RF, U
*Element Output, directions=YES
DENSITY, LE, PE, PEEQ, S
*Contact Output
CSTRESS, 
** 
** HISTORY OUTPUT: H-Output-1
** 
*Output, history, variable=PRESELECT
*End Step
** ----------------------------------------------------------------